<?xml version="1.0" encoding="UTF-8"?>

<!-- generated on 06/19/19 17:00:11 by Eclipse SUMO netedit Version 1.0.0
<configuration xmlns:xsi="http://www.w3.org/2001/XMLSchema-instance" xsi:noNamespaceSchemaLocation="http://sumo.dlr.de/xsd/netconvertConfiguration.xsd">

    <input>
        <sumo-net-file value="E:\LasVSim%20Program\LasVSim-gui\LasVSim-gui%200.2.1.190616_alpha\Map\Map2_Highway\grid-map.net.xml"/>
    </input>

    <output>
        <output-file value="E:\LasVSim%20Program\LasVSim-gui\LasVSim-gui%200.2.1.190616_alpha\Map\Map2_Highway\grid-map.net.xml"/>
    </output>

    <processing>
        <offset.disable-normalization value="true"/>
        <lefthand value="false"/>
    </processing>

    <junctions>
        <no-turnarounds value="true"/>
        <junctions.corner-detail value="0"/>
        <junctions.limit-turn-speed value="-1"/>
        <rectangular-lane-cut value="false"/>
    </junctions>

    <pedestrian>
        <walkingareas value="false"/>
    </pedestrian>

</configuration>
-->

<additional xmlns:xsi="http://www.w3.org/2001/XMLSchema-instance" xsi:noNamespaceSchemaLocation="http://sumo.dlr.de/xsd/additional_file.xsd">
    <rerouter id="rerouter_0" edges="gneE18" pos="-907.16,11.99">
        <interval begin="0.00" end="36000000.00">
            <destProbReroute id="gneE25"/>
        </interval>
    </rerouter>
    <rerouter id="rerouter_1" edges="gneE25" pos="-936.78,-87.94">
        <interval begin="0.00" end="36000000.00">
            <destProbReroute id="gneE18"/>
        </interval>
    </rerouter>
    <rerouter id="rerouter_2" edges="-gneE20" pos="881.02,-140.30">
        <interval begin="0.00" end="36000000.00">
            <destProbReroute id="gneE18"/>
        </interval>
    </rerouter>
    <rerouter id="rerouter_3" edges="-gneE27" pos="942.91,-10.79">
        <interval begin="0.00" end="36000000.00">
            <destProbReroute id="gneE18"/>
        </interval>
    </rerouter>
    <rerouter id="rerouter_4" edges="-gneE18" pos="896.96,-17.29">
        <interval begin="0.00" end="36000000.00">
            <destProbReroute id="-gneE25"/>
        </interval>
    </rerouter>
    <rerouter id="rerouter_5" edges="gneE27" pos="899.26,-79.35">
        <interval begin="0.00" end="36000000.00">
            <destProbReroute id="-gneE25"/>
        </interval>
    </rerouter>
    <rerouter id="rerouter_6" edges="gneE20" pos="-900.34,-75.52">
        <interval begin="0.00" end="36000000.00">
            <destProbReroute id="-gneE25"/>
        </interval>
    </rerouter>
    <rerouter id="rerouter_7" edges="-gneE25" pos="-907.23,-15.52">
        <interval begin="0.00" end="36000000.00">
            <destProbReroute id="-gneE18"/>
        </interval>
    </rerouter>
</additional>
