<?xml version="1.0" encoding="UTF-8"?>

<!-- generated on 07/06/19 13:55:40 by Eclipse SUMO netedit Version 1.0.1
<configuration xmlns:xsi="http://www.w3.org/2001/XMLSchema-instance" xsi:noNamespaceSchemaLocation="http://sumo.dlr.de/xsd/netconvertConfiguration.xsd">

    <input>
        <sumo-net-file value="E:\Research\Reinforcement%20Learning\lasvsim\env_build\LasVSim\Map\Map3_Highway_v2\grid-map.net.xml"/>
    </input>

    <output>
        <output-file value="E:\Research\Reinforcement%20Learning\lasvsim\env_build\LasVSim\Map\Map3_Highway_v2\grid-map.net.xml"/>
    </output>

    <processing>
        <offset.disable-normalization value="true"/>
        <lefthand value="false"/>
    </processing>

    <junctions>
        <no-turnarounds value="true"/>
        <junctions.corner-detail value="0"/>
        <junctions.limit-turn-speed value="-1"/>
        <rectangular-lane-cut value="false"/>
    </junctions>

    <pedestrian>
        <walkingareas value="false"/>
    </pedestrian>

</configuration>
-->

<net version="1.0" xmlns:xsi="http://www.w3.org/2001/XMLSchema-instance" xsi:noNamespaceSchemaLocation="http://sumo.dlr.de/xsd/net_file.xsd">

    <location netOffset="0.00,0.00" convBoundary="-2000.00,-600.00,922.00,0.00" origBoundary="-10000000000.00,-10000000000.00,10000000000.00,10000000000.00" projParameter="!"/>

    <edge id=":10_0" function="internal">
        <lane id=":10_0_0" index="0" speed="34.00" length="29.68" shape="-915.60,13.13 -922.57,11.31 -928.15,6.56 -931.86,-0.06 -933.20,-7.50"/>
    </edge>
    <edge id=":10_1" function="internal">
        <lane id=":10_1_0" index="0" speed="34.00" length="25.25" shape="-915.60,9.38 -921.90,8.32 -926.40,5.16 -929.10,-0.12 -930.00,-7.50"/>
    </edge>
    <edge id=":10_2" function="internal">
        <lane id=":10_2_0" index="0" speed="34.00" length="19.64" shape="-915.60,5.63 -920.50,4.80 -924.00,2.34 -926.10,-1.76 -926.80,-7.50"/>
    </edge>
    <edge id=":10_3" function="internal">
        <lane id=":10_3_0" index="0" speed="34.00" length="14.03" shape="-915.60,1.87 -919.10,1.29 -921.60,-0.47 -923.10,-3.40 -923.60,-7.50"/>
    </edge>
    <edge id=":10_4" function="internal">
        <lane id=":10_4_0" index="0" speed="34.00" length="2.81" width="3.75" shape="-917.20,-7.50 -917.10,-6.68 -916.80,-6.09 -916.30,-5.74 -915.60,-5.63"/>
    </edge>
    <edge id=":10_5" function="internal">
        <lane id=":10_5_0" index="0" speed="34.00" length="8.42" width="3.75" shape="-920.40,-7.50 -920.10,-5.04 -919.20,-3.28 -917.70,-2.23 -915.60,-1.87"/>
    </edge>
    <edge id=":14_0" function="internal">
        <lane id=":14_0_0" index="0" speed="34.00" length="29.68" width="3.75" shape="933.20,-7.50 931.86,-0.06 928.15,6.56 922.57,11.31 915.60,13.13"/>
    </edge>
    <edge id=":14_1" function="internal">
        <lane id=":14_1_0" index="0" speed="34.00" length="25.25" width="3.75" shape="930.00,-7.50 929.10,-0.12 926.40,5.16 921.90,8.32 915.60,9.38"/>
    </edge>
    <edge id=":14_2" function="internal">
        <lane id=":14_2_0" index="0" speed="34.00" length="19.64" width="3.75" shape="926.80,-7.50 926.10,-1.76 924.00,2.34 920.50,4.80 915.60,5.63"/>
    </edge>
    <edge id=":14_3" function="internal">
        <lane id=":14_3_0" index="0" speed="34.00" length="14.03" width="3.75" shape="923.60,-7.50 923.10,-3.40 921.60,-0.47 919.10,1.29 915.60,1.87"/>
    </edge>
    <edge id=":5_0" function="internal">
        <lane id=":5_0_0" index="0" speed="34.00" length="29.68" width="3.75" shape="-933.20,-142.50 -931.86,-149.94 -928.15,-156.56 -922.57,-161.31 -915.60,-163.13"/>
    </edge>
    <edge id=":5_1" function="internal">
        <lane id=":5_1_0" index="0" speed="34.00" length="25.25" width="3.75" shape="-930.00,-142.50 -929.10,-149.88 -926.40,-155.16 -921.90,-158.32 -915.60,-159.38"/>
    </edge>
    <edge id=":5_2" function="internal">
        <lane id=":5_2_0" index="0" speed="34.00" length="19.64" width="3.75" shape="-926.80,-142.50 -926.10,-148.24 -924.00,-152.34 -920.50,-154.80 -915.60,-155.63"/>
    </edge>
    <edge id=":5_3" function="internal">
        <lane id=":5_3_0" index="0" speed="34.00" length="14.03" width="3.75" shape="-923.60,-142.50 -923.10,-146.60 -921.60,-149.53 -919.10,-151.29 -915.60,-151.88"/>
    </edge>
    <edge id=":5_4" function="internal">
        <lane id=":5_4_0" index="0" speed="34.00" length="2.81" shape="-915.60,-144.38 -916.30,-144.26 -916.80,-143.91 -917.10,-143.32 -917.20,-142.50"/>
    </edge>
    <edge id=":5_5" function="internal">
        <lane id=":5_5_0" index="0" speed="34.00" length="8.42" shape="-915.60,-148.13 -917.70,-147.77 -919.20,-146.72 -920.10,-144.96 -920.40,-142.50"/>
    </edge>
    <edge id=":9_0" function="internal">
        <lane id=":9_0_0" index="0" speed="34.00" length="2.81" width="3.75" shape="917.20,-142.50 917.10,-143.32 916.80,-143.91 916.30,-144.26 915.60,-144.38"/>
    </edge>
    <edge id=":9_1" function="internal">
        <lane id=":9_1_0" index="0" speed="34.00" length="8.42" width="3.75" shape="920.40,-142.50 920.10,-144.96 919.20,-146.72 917.70,-147.77 915.60,-148.13"/>
    </edge>
    <edge id=":9_2" function="internal">
        <lane id=":9_2_0" index="0" speed="34.00" length="29.68" shape="915.60,-163.13 922.57,-161.31 928.15,-156.56 931.86,-149.94 933.20,-142.50"/>
    </edge>
    <edge id=":9_3" function="internal">
        <lane id=":9_3_0" index="0" speed="34.00" length="25.25" shape="915.60,-159.38 921.90,-158.32 926.40,-155.16 929.10,-149.88 930.00,-142.50"/>
    </edge>
    <edge id=":9_4" function="internal">
        <lane id=":9_4_0" index="0" speed="34.00" length="19.64" shape="915.60,-155.63 920.50,-154.80 924.00,-152.34 926.10,-148.24 926.80,-142.50"/>
    </edge>
    <edge id=":9_5" function="internal">
        <lane id=":9_5_0" index="0" speed="34.00" length="14.03" shape="915.60,-151.88 919.10,-151.29 921.60,-149.53 923.10,-146.60 923.60,-142.50"/>
    </edge>

    <edge id="-gneE18" from="10" to="14" priority="-1">
        <lane id="-gneE18_0" index="0" speed="34.00" length="1831.20" width="3.75" shape="-915.60,-5.63 915.60,-5.63"/>
        <lane id="-gneE18_1" index="1" speed="34.00" length="1831.20" width="3.75" shape="-915.60,-1.87 915.60,-1.87"/>
    </edge>
    <edge id="-gneE20" from="5" to="9" priority="-1">
        <lane id="-gneE20_0" index="0" speed="34.00" length="1831.20" width="3.75" shape="-915.60,-163.13 915.60,-163.13"/>
        <lane id="-gneE20_1" index="1" speed="34.00" length="1831.20" width="3.75" shape="-915.60,-159.38 915.60,-159.38"/>
        <lane id="-gneE20_2" index="2" speed="34.00" length="1831.20" width="3.75" shape="-915.60,-155.63 915.60,-155.63"/>
        <lane id="-gneE20_3" index="3" speed="34.00" length="1831.20" width="3.75" shape="-915.60,-151.88 915.60,-151.88"/>
    </edge>
    <edge id="-gneE25" from="5" to="10" priority="-1">
        <lane id="-gneE25_0" index="0" speed="34.00" length="135.00" shape="-917.20,-142.50 -917.20,-7.50"/>
        <lane id="-gneE25_1" index="1" speed="34.00" length="135.00" shape="-920.40,-142.50 -920.40,-7.50"/>
    </edge>
    <edge id="-gneE27" from="9" to="14" priority="-1">
        <lane id="-gneE27_0" index="0" speed="34.00" length="135.00" shape="933.20,-142.50 933.20,-7.50"/>
        <lane id="-gneE27_1" index="1" speed="34.00" length="135.00" shape="930.00,-142.50 930.00,-7.50"/>
        <lane id="-gneE27_2" index="2" speed="34.00" length="135.00" shape="926.80,-142.50 926.80,-7.50"/>
        <lane id="-gneE27_3" index="3" speed="34.00" length="135.00" shape="923.60,-142.50 923.60,-7.50"/>
    </edge>
    <edge id="gneE18" from="14" to="10" priority="-1">
        <lane id="gneE18_0" index="0" speed="34.00" length="1831.20" width="3.75" shape="915.60,13.13 -915.60,13.13"/>
        <lane id="gneE18_1" index="1" speed="34.00" length="1831.20" width="3.75" shape="915.60,9.38 -915.60,9.38"/>
        <lane id="gneE18_2" index="2" speed="34.00" length="1831.20" width="3.75" shape="915.60,5.63 -915.60,5.63"/>
        <lane id="gneE18_3" index="3" speed="34.00" length="1831.20" width="3.75" shape="915.60,1.87 -915.60,1.87"/>
    </edge>
    <edge id="gneE20" from="9" to="5" priority="-1">
        <lane id="gneE20_0" index="0" speed="34.00" length="1831.20" width="3.75" shape="915.60,-144.38 -915.60,-144.38"/>
        <lane id="gneE20_1" index="1" speed="34.00" length="1831.20" width="3.75" shape="915.60,-148.13 -915.60,-148.13"/>
    </edge>
    <edge id="gneE25" from="10" to="5" priority="-1">
        <lane id="gneE25_0" index="0" speed="34.00" length="135.00" shape="-933.20,-7.50 -933.20,-142.50"/>
        <lane id="gneE25_1" index="1" speed="34.00" length="135.00" shape="-930.00,-7.50 -930.00,-142.50"/>
        <lane id="gneE25_2" index="2" speed="34.00" length="135.00" shape="-926.80,-7.50 -926.80,-142.50"/>
        <lane id="gneE25_3" index="3" speed="34.00" length="135.00" shape="-923.60,-7.50 -923.60,-142.50"/>
    </edge>
    <edge id="gneE27" from="14" to="9" priority="-1">
        <lane id="gneE27_0" index="0" speed="34.00" length="135.00" shape="917.20,-7.50 917.20,-142.50"/>
        <lane id="gneE27_1" index="1" speed="34.00" length="135.00" shape="920.40,-7.50 920.40,-142.50"/>
    </edge>

    <junction id="10" type="priority" x="-922.00" y="0.00" incLanes="gneE18_0 gneE18_1 gneE18_2 gneE18_3 -gneE25_0 -gneE25_1" intLanes=":10_0_0 :10_1_0 :10_2_0 :10_3_0 :10_4_0 :10_5_0" shape="-915.60,15.00 -915.60,-7.50 -934.80,-7.50">
        <request index="0" response="000000" foes="000000" cont="0"/>
        <request index="1" response="000000" foes="000000" cont="0"/>
        <request index="2" response="000000" foes="000000" cont="0"/>
        <request index="3" response="000000" foes="000000" cont="0"/>
        <request index="4" response="000000" foes="000000" cont="0"/>
        <request index="5" response="000000" foes="000000" cont="0"/>
    </junction>
    <junction id="14" type="priority" x="922.00" y="0.00" incLanes="-gneE27_0 -gneE27_1 -gneE27_2 -gneE27_3 -gneE18_0 -gneE18_1" intLanes=":14_0_0 :14_1_0 :14_2_0 :14_3_0" shape="934.80,-7.50 915.60,-7.50 915.60,15.00">
        <request index="0" response="0000" foes="0000" cont="0"/>
        <request index="1" response="0000" foes="0000" cont="0"/>
        <request index="2" response="0000" foes="0000" cont="0"/>
        <request index="3" response="0000" foes="0000" cont="0"/>
    </junction>
    <junction id="5" type="priority" x="-922.00" y="-150.00" incLanes="gneE25_0 gneE25_1 gneE25_2 gneE25_3 gneE20_0 gneE20_1" intLanes=":5_0_0 :5_1_0 :5_2_0 :5_3_0 :5_4_0 :5_5_0" shape="-934.80,-142.50 -915.60,-142.50 -915.60,-165.00">
        <request index="0" response="000000" foes="000000" cont="0"/>
        <request index="1" response="000000" foes="000000" cont="0"/>
        <request index="2" response="000000" foes="000000" cont="0"/>
        <request index="3" response="000000" foes="000000" cont="0"/>
        <request index="4" response="000000" foes="000000" cont="0"/>
        <request index="5" response="000000" foes="000000" cont="0"/>
    </junction>
    <junction id="9" type="priority" x="922.00" y="-150.00" incLanes="gneE27_0 gneE27_1 -gneE20_0 -gneE20_1 -gneE20_2 -gneE20_3" intLanes=":9_0_0 :9_1_0 :9_2_0 :9_3_0 :9_4_0 :9_5_0" shape="915.60,-142.50 934.80,-142.50 915.60,-165.00">
        <request index="0" response="000000" foes="000000" cont="0"/>
        <request index="1" response="000000" foes="000000" cont="0"/>
        <request index="2" response="000000" foes="000000" cont="0"/>
        <request index="3" response="000000" foes="000000" cont="0"/>
        <request index="4" response="000000" foes="000000" cont="0"/>
        <request index="5" response="000000" foes="000000" cont="0"/>
    </junction>
    <junction id="gneJ1" type="dead_end" x="-2000.00" y="-600.00" incLanes="" intLanes="" shape="-2000.00,-600.00"/>

    <connection from="-gneE20" to="-gneE27" fromLane="0" toLane="0" via=":9_2_0" dir="l" state="M"/>
    <connection from="-gneE20" to="-gneE27" fromLane="1" toLane="1" via=":9_3_0" dir="l" state="M"/>
    <connection from="-gneE20" to="-gneE27" fromLane="2" toLane="2" via=":9_4_0" dir="l" state="M"/>
    <connection from="-gneE20" to="-gneE27" fromLane="3" toLane="3" via=":9_5_0" dir="l" state="M"/>
    <connection from="-gneE25" to="-gneE18" fromLane="0" toLane="0" via=":10_4_0" dir="r" state="M"/>
    <connection from="-gneE25" to="-gneE18" fromLane="1" toLane="1" via=":10_5_0" dir="r" state="M"/>
    <connection from="-gneE27" to="gneE18" fromLane="0" toLane="0" via=":14_0_0" dir="l" state="M"/>
    <connection from="-gneE27" to="gneE18" fromLane="1" toLane="1" via=":14_1_0" dir="l" state="M"/>
    <connection from="-gneE27" to="gneE18" fromLane="2" toLane="2" via=":14_2_0" dir="l" state="M"/>
    <connection from="-gneE27" to="gneE18" fromLane="3" toLane="3" via=":14_3_0" dir="l" state="M"/>
    <connection from="gneE18" to="gneE25" fromLane="0" toLane="0" via=":10_0_0" dir="l" state="M"/>
    <connection from="gneE18" to="gneE25" fromLane="1" toLane="1" via=":10_1_0" dir="l" state="M"/>
    <connection from="gneE18" to="gneE25" fromLane="2" toLane="2" via=":10_2_0" dir="l" state="M"/>
    <connection from="gneE18" to="gneE25" fromLane="3" toLane="3" via=":10_3_0" dir="l" state="M"/>
    <connection from="gneE20" to="-gneE25" fromLane="0" toLane="0" via=":5_4_0" dir="r" state="M"/>
    <connection from="gneE20" to="-gneE25" fromLane="1" toLane="1" via=":5_5_0" dir="r" state="M"/>
    <connection from="gneE25" to="-gneE20" fromLane="0" toLane="0" via=":5_0_0" dir="l" state="M"/>
    <connection from="gneE25" to="-gneE20" fromLane="1" toLane="1" via=":5_1_0" dir="l" state="M"/>
    <connection from="gneE25" to="-gneE20" fromLane="2" toLane="2" via=":5_2_0" dir="l" state="M"/>
    <connection from="gneE25" to="-gneE20" fromLane="3" toLane="3" via=":5_3_0" dir="l" state="M"/>
    <connection from="gneE27" to="gneE20" fromLane="0" toLane="0" via=":9_0_0" dir="r" state="M"/>
    <connection from="gneE27" to="gneE20" fromLane="1" toLane="1" via=":9_1_0" dir="r" state="M"/>

    <connection from=":10_0" to="gneE25" fromLane="0" toLane="0" dir="l" state="M"/>
    <connection from=":10_1" to="gneE25" fromLane="0" toLane="1" dir="l" state="M"/>
    <connection from=":10_2" to="gneE25" fromLane="0" toLane="2" dir="l" state="M"/>
    <connection from=":10_3" to="gneE25" fromLane="0" toLane="3" dir="l" state="M"/>
    <connection from=":10_4" to="-gneE18" fromLane="0" toLane="0" dir="r" state="M"/>
    <connection from=":10_5" to="-gneE18" fromLane="0" toLane="1" dir="r" state="M"/>
    <connection from=":14_0" to="gneE18" fromLane="0" toLane="0" dir="l" state="M"/>
    <connection from=":14_1" to="gneE18" fromLane="0" toLane="1" dir="l" state="M"/>
    <connection from=":14_2" to="gneE18" fromLane="0" toLane="2" dir="l" state="M"/>
    <connection from=":14_3" to="gneE18" fromLane="0" toLane="3" dir="l" state="M"/>
    <connection from=":5_0" to="-gneE20" fromLane="0" toLane="0" dir="l" state="M"/>
    <connection from=":5_1" to="-gneE20" fromLane="0" toLane="1" dir="l" state="M"/>
    <connection from=":5_2" to="-gneE20" fromLane="0" toLane="2" dir="l" state="M"/>
    <connection from=":5_3" to="-gneE20" fromLane="0" toLane="3" dir="l" state="M"/>
    <connection from=":5_4" to="-gneE25" fromLane="0" toLane="0" dir="r" state="M"/>
    <connection from=":5_5" to="-gneE25" fromLane="0" toLane="1" dir="r" state="M"/>
    <connection from=":9_0" to="gneE20" fromLane="0" toLane="0" dir="r" state="M"/>
    <connection from=":9_1" to="gneE20" fromLane="0" toLane="1" dir="r" state="M"/>
    <connection from=":9_2" to="-gneE27" fromLane="0" toLane="0" dir="l" state="M"/>
    <connection from=":9_3" to="-gneE27" fromLane="0" toLane="1" dir="l" state="M"/>
    <connection from=":9_4" to="-gneE27" fromLane="0" toLane="2" dir="l" state="M"/>
    <connection from=":9_5" to="-gneE27" fromLane="0" toLane="3" dir="l" state="M"/>

</net>
