<routes>
	<vType id="car_1" length="4.754264" width="1.596668" accel="2.6" decel="4.5" apparentDecel="4.5" emergencyDecel="4.5" sigma="0.5" tau="1" minGap="1" 
	  color="24,0,255,255" vClass="passenger" guiShape="passenger" impatience="0" laneChangeModel="SL2015" carFollowModel="Krauss" 
	speedFactor="normc(0.58,0.028,0.5,1.0)" latAlignment="center" minGapLat="0.1" maxSpeedLat="1" lcSpeedGain="10"/>
	
	<vType id="car_2" length="4.173896" width="1.77515" accel="2.6" decel="4.5" apparentDecel="4.5"  emergencyDecel="4.5" sigma="0.5" tau="1" minGap="1" 
	 speedFactor="normc(0.58,0.028,0.5,1.0)" color="62,62,62,235" vClass="passenger" guiShape="passenger" impatience="0" laneChangeModel="SL2015" carFollowModel="Krauss" 
	latAlignment="center" minGapLat="0.1" maxSpeedLat="1"/>
	
	<vType id="car_3" length="4.173896" width="1.77515" accel="2.6" decel="4.5" apparentDecel="4.5"  emergencyDecel="4.5" sigma="0.5" tau="1" minGap="1" 
	 speedFactor="normc(0.58,0.028,0.5,1.0)" color="255,255,255,186" vClass="passenger" guiShape="passenger" impatience="0" laneChangeModel="SL2015" carFollowModel="Krauss" 
	latAlignment="center" minGapLat="0.1" maxSpeedLat="1"/>
	
	<vType id="truck_1" length="6.174" width="2.166908" accel="2" decel="4.5" apparentDecel="4"  emergencyDecel="4.5" sigma="0.5" tau="1" minGap="1.5" 
	 speedFactor="normc(0.58,0.028,0.5,0.83)" color="255,0,0,255" vClass="passenger" guiShape="truck" impatience="0" laneChangeModel="SL2015" carFollowModel="Krauss" 
	latAlignment="center" minGapLat="0.1" maxSpeedLat="1"/>
	
	<vType id="self_car" length="4.5" width="1.8" accel="3.5" decel="2.2" sigma="1.0" guiShape="passenger/wagon" color="1,0,1" maxSpeed="30"/>

	<route id="self_route" edges="gneE25 -gneE20" />

	<flow id="carflow_1" type="car_1" beg="0" end="200" number="72" from="gneE18" to="-gneE20" departLane="free"/>
	<flow id="carflow_2" type="car_2" beg="0" end="200" number="72" from="gneE18" to="-gneE20"  departLane="free"/>
	<flow id="carflow_3" type="car_3" beg="0" end="200" number="72" from="gneE18" to="-gneE20" departLane="free"/>
	<flow id="carflow_4" type="truck_1" beg="0" end="200" number="24" from="gneE18" to="-gneE20"  departLane="free"/>
	
	<flow id="carflow_5" type="car_1" beg="0" end="200" number="72" from="-gneE25" to="gneE20" departLane="free"/>
	<flow id="carflow_6" type="car_2" beg="0" end="200" number="72" from="-gneE25" to="gneE20"  departLane="free"/>
	<flow id="carflow_7" type="car_3" beg="0" end="200" number="72" from="-gneE25" to="gneE20" departLane="free"/>
	<flow id="carflow_8" type="truck_1" beg="0" end="200" number="24" from="-gneE25" to="gneE20"  departLane="free"/>
</routes>