<?xml version="1.0" encoding="UTF-8"?>

<!-- generated on 2020年02月27日 星期四 13时18分37秒 by Eclipse SUMO netedit Version 1.2.0
<configuration xmlns:xsi="http://www.w3.org/2001/XMLSchema-instance" xsi:noNamespaceSchemaLocation="http://sumo.dlr.de/xsd/netconvertConfiguration.xsd">

    <input>
        <sumo-net-file value="/home/yang/Documents/Work_Data/Project/Toyota_RL/Toyata_2019/201909/env_build/sumo_files/a.net.xml"/>
    </input>

    <output>
        <output-file value="/home/yang/Documents/Work_Data/Project/Toyota_RL/Toyata_2019/201909/env_build/sumo_files/a.net.xml"/>
    </output>

    <processing>
        <geometry.max-grade.fix value="false"/>
        <offset.disable-normalization value="true"/>
        <lefthand value="false"/>
    </processing>

    <junctions>
        <no-turnarounds value="true"/>
        <junctions.corner-detail value="5"/>
        <junctions.limit-turn-speed value="5.5"/>
        <rectangular-lane-cut value="false"/>
    </junctions>

    <pedestrian>
        <walkingareas value="false"/>
    </pedestrian>

</configuration>
-->

<net version="1.1" junctionCornerDetail="5" limitTurnSpeed="5.50" xmlns:xsi="http://www.w3.org/2001/XMLSchema-instance" xsi:noNamespaceSchemaLocation="http://sumo.dlr.de/xsd/net_file.xsd">

    <location netOffset="500.00,500.00" convBoundary="-500.00,-500.00,500.00,500.00" origBoundary="-500.00,-500.00,500.00,500.00" projParameter="!"/>

    <edge id=":0_0" function="internal">
        <lane id=":0_0_0" index="0" speed="9.43" length="19.96" width="3.75" shape="-5.62,18.00 -6.40,12.59 -8.72,8.72 -12.59,6.40 -18.00,5.62"/>
    </edge>
    <edge id=":0_1" function="internal">
        <lane id=":0_1_0" index="0" speed="12.00" length="36.00" width="3.75" shape="-1.88,18.00 -1.88,-18.00"/>
    </edge>
    <edge id=":0_2" function="internal">
        <lane id=":0_2_0" index="0" speed="11.83" length="32.05" width="3.75" shape="-1.88,18.00 -0.63,9.30 3.09,3.09 9.30,-0.63 18.00,-1.88"/>
    </edge>
    <edge id=":0_3" function="internal">
        <lane id=":0_3_0" index="0" speed="9.43" length="19.96" width="3.75" shape="18.00,5.62 12.59,6.40 8.72,8.72 6.40,12.59 5.62,18.00"/>
    </edge>
    <edge id=":0_4" function="internal">
        <lane id=":0_4_0" index="0" speed="12.00" length="36.00" width="3.75" shape="18.00,1.88 -18.00,1.88"/>
    </edge>
    <edge id=":0_5" function="internal">
        <lane id=":0_5_0" index="0" speed="11.83" length="32.05" width="3.75" shape="18.00,1.88 9.30,0.63 3.09,-3.09 -0.63,-9.30 -1.88,-18.00"/>
    </edge>
    <edge id=":0_6" function="internal">
        <lane id=":0_6_0" index="0" speed="9.43" length="19.96" width="3.75" shape="5.62,-18.00 6.40,-12.59 8.72,-8.72 12.59,-6.40 18.00,-5.62"/>
    </edge>
    <edge id=":0_7" function="internal">
        <lane id=":0_7_0" index="0" speed="12.00" length="36.00" width="3.75" shape="1.88,-18.00 1.88,18.00"/>
    </edge>
    <edge id=":0_8" function="internal">
        <lane id=":0_8_0" index="0" speed="11.83" length="32.05" width="3.75" shape="1.88,-18.00 0.63,-9.30 -3.09,-3.09 -9.30,0.63 -18.00,1.88"/>
    </edge>
    <edge id=":0_9" function="internal">
        <lane id=":0_9_0" index="0" speed="9.43" length="19.96" width="3.75" shape="-18.00,-5.62 -12.59,-6.40 -8.72,-8.72 -6.40,-12.59 -5.62,-18.00"/>
    </edge>
    <edge id=":0_10" function="internal">
        <lane id=":0_10_0" index="0" speed="12.00" length="36.00" width="3.75" shape="-18.00,-1.88 18.00,-1.88"/>
    </edge>
    <edge id=":0_11" function="internal">
        <lane id=":0_11_0" index="0" speed="11.83" length="32.05" width="3.75" shape="-18.00,-1.88 -9.30,-0.63 -3.09,3.09 0.63,9.30 1.88,18.00"/>
    </edge>
    <edge id=":1_0" function="internal">
        <lane id=":1_0_0" index="0" speed="3.95" length="5.48" width="3.75" shape="-1.88,-500.00 -0.94,-501.41 0.00,-501.88 0.94,-501.41 1.88,-500.00"/>
    </edge>
    <edge id=":2_0" function="internal">
        <lane id=":2_0_0" index="0" speed="3.95" length="5.48" width="3.75" shape="500.00,-1.88 501.41,-0.94 501.88,0.00 501.41,0.94 500.00,1.88"/>
    </edge>
    <edge id=":3_0" function="internal">
        <lane id=":3_0_0" index="0" speed="3.95" length="5.48" width="3.75" shape="1.88,500.00 0.94,501.41 0.00,501.88 -0.94,501.41 -1.88,500.00"/>
    </edge>
    <edge id=":4_0" function="internal">
        <lane id=":4_0_0" index="0" speed="3.95" length="5.48" width="3.75" shape="-500.00,1.88 -501.41,0.94 -501.88,0.00 -501.41,-0.94 -500.00,-1.88"/>
    </edge>

    <edge id="1i" from="0" to="1" priority="1" length="482.00">
        <lane id="1i_0" index="0" speed="12.00" length="482.00" width="3.75" shape="-5.62,-18.00 -5.62,-500.00"/>
        <lane id="1i_1" index="1" speed="12.00" length="482.00" width="3.75" shape="-1.88,-18.00 -1.88,-500.00"/>
    </edge>
    <edge id="1o" from="1" to="0" priority="1" length="500.00">
        <lane id="1o_0" index="0" speed="12.00" length="500.00" width="3.75" shape="5.62,-500.00 5.62,-18.00"/>
        <lane id="1o_1" index="1" speed="12.00" length="500.00" width="3.75" shape="1.88,-500.00 1.88,-18.00"/>
    </edge>
    <edge id="2i" from="0" to="2" priority="1" length="482.00">
        <lane id="2i_0" index="0" speed="12.00" length="482.00" width="3.75" shape="18.00,-5.62 500.00,-5.62"/>
        <lane id="2i_1" index="1" speed="12.00" length="482.00" width="3.75" shape="18.00,-1.88 500.00,-1.88"/>
    </edge>
    <edge id="2o" from="2" to="0" priority="1" length="500.00">
        <lane id="2o_0" index="0" speed="12.00" length="500.00" width="3.75" shape="500.00,5.62 18.00,5.62"/>
        <lane id="2o_1" index="1" speed="12.00" length="500.00" width="3.75" shape="500.00,1.88 18.00,1.88"/>
    </edge>
    <edge id="3i" from="0" to="3" priority="1" length="482.00">
        <lane id="3i_0" index="0" speed="12.00" length="482.00" width="3.75" shape="5.62,18.00 5.62,500.00"/>
        <lane id="3i_1" index="1" speed="12.00" length="482.00" width="3.75" shape="1.88,18.00 1.88,500.00"/>
    </edge>
    <edge id="3o" from="3" to="0" priority="1" length="500.00">
        <lane id="3o_0" index="0" speed="12.00" length="500.00" width="3.75" shape="-5.62,500.00 -5.62,18.00"/>
        <lane id="3o_1" index="1" speed="12.00" length="500.00" width="3.75" shape="-1.88,500.00 -1.88,18.00"/>
    </edge>
    <edge id="4i" from="0" to="4" priority="1" length="482.00">
        <lane id="4i_0" index="0" speed="12.00" length="482.00" width="3.75" shape="-18.00,5.62 -500.00,5.62"/>
        <lane id="4i_1" index="1" speed="12.00" length="482.00" width="3.75" shape="-18.00,1.88 -500.00,1.88"/>
    </edge>
    <edge id="4o" from="4" to="0" priority="1" length="500.00">
        <lane id="4o_0" index="0" speed="12.00" length="500.00" width="3.75" shape="-500.00,-5.62 -18.00,-5.62"/>
        <lane id="4o_1" index="1" speed="12.00" length="500.00" width="3.75" shape="-500.00,-1.88 -18.00,-1.88"/>
    </edge>

    <tlLogic id="0" type="static" programID="0" offset="0">
        <phase duration="25" state="GGGGrrGGGGrr"/>
        <phase duration="5"  state="GyyGrrGyyGrr"/>
        <phase duration="25" state="GrrGGGGrrGGG"/>
        <phase duration="5"  state="GrrGyyGrrGyy"/>
    </tlLogic>

    <junction id="0" type="traffic_light" x="0.00" y="0.00" incLanes="3o_0 3o_1 2o_0 2o_1 1o_0 1o_1 4o_0 4o_1" intLanes=":0_0_0 :0_1_0 :0_2_0 :0_3_0 :0_4_0 :0_5_0 :0_6_0 :0_7_0 :0_8_0 :0_9_0 :0_10_0 :0_11_0" shape="-7.50,18.00 7.50,18.00 18.00,7.50 18.00,-7.50 7.50,-18.00 -7.50,-18.00 -18.00,-7.50 -18.00,7.50" customShape="1">
        <request index="0"  response="000000000000" foes="000000000000" cont="0"/>
        <request index="1"  response="000000000000" foes="110100110000" cont="0"/>
        <request index="2"  response="000010000000" foes="110010110000" cont="0"/>
        <request index="3"  response="000000000000" foes="000000000000" cont="0"/>
        <request index="4"  response="000110000110" foes="100110000110" cont="0"/>
        <request index="5"  response="010110000110" foes="010110000110" cont="0"/>
        <request index="6"  response="000000000000" foes="000000000000" cont="0"/>
        <request index="7"  response="000000000000" foes="110000110100" cont="0"/>
        <request index="8"  response="000000000010" foes="110000110010" cont="0"/>
        <request index="9"  response="000000000000" foes="000000000000" cont="0"/>
        <request index="10" response="000110000110" foes="000110100110" cont="0"/>
        <request index="11" response="000110010110" foes="000110010110" cont="0"/>
    </junction>
    <junction id="1" type="priority" x="0.00" y="-500.00" incLanes="1i_0 1i_1" intLanes=":1_0_0" shape="0.00,-500.00 -7.50,-500.00 0.00,-500.00">
        <request index="0" response="0" foes="0" cont="0"/>
    </junction>
    <junction id="2" type="priority" x="500.00" y="0.00" incLanes="2i_0 2i_1" intLanes=":2_0_0" shape="500.00,0.00 500.00,-7.50 500.00,0.00">
        <request index="0" response="0" foes="0" cont="0"/>
    </junction>
    <junction id="3" type="priority" x="0.00" y="500.00" incLanes="3i_0 3i_1" intLanes=":3_0_0" shape="0.00,500.00 7.50,500.00 0.00,500.00">
        <request index="0" response="0" foes="0" cont="0"/>
    </junction>
    <junction id="4" type="priority" x="-500.00" y="0.00" incLanes="4i_0 4i_1" intLanes=":4_0_0" shape="-500.00,0.00 -500.00,7.50 -500.00,0.00">
        <request index="0" response="0" foes="0" cont="0"/>
    </junction>

    <connection from="1i" to="1o" fromLane="1" toLane="1" via=":1_0_0" dir="t" state="M"/>
    <connection from="1o" to="2i" fromLane="0" toLane="0" via=":0_6_0" tl="0" linkIndex="6" dir="r" state="O"/>
    <connection from="1o" to="3i" fromLane="1" toLane="1" via=":0_7_0" tl="0" linkIndex="7" dir="s" state="O"/>
    <connection from="1o" to="4i" fromLane="1" toLane="1" via=":0_8_0" tl="0" linkIndex="8" dir="l" state="o"/>
    <connection from="2i" to="2o" fromLane="1" toLane="1" via=":2_0_0" dir="t" state="M"/>
    <connection from="2o" to="3i" fromLane="0" toLane="0" via=":0_3_0" tl="0" linkIndex="3" dir="r" state="O"/>
    <connection from="2o" to="4i" fromLane="1" toLane="1" via=":0_4_0" tl="0" linkIndex="4" dir="s" state="o"/>
    <connection from="2o" to="1i" fromLane="1" toLane="1" via=":0_5_0" tl="0" linkIndex="5" dir="l" state="o"/>
    <connection from="3i" to="3o" fromLane="1" toLane="1" via=":3_0_0" dir="t" state="M"/>
    <connection from="3o" to="4i" fromLane="0" toLane="0" via=":0_0_0" tl="0" linkIndex="0" dir="r" state="O"/>
    <connection from="3o" to="1i" fromLane="1" toLane="1" via=":0_1_0" tl="0" linkIndex="1" dir="s" state="O"/>
    <connection from="3o" to="2i" fromLane="1" toLane="1" via=":0_2_0" tl="0" linkIndex="2" dir="l" state="o"/>
    <connection from="4i" to="4o" fromLane="1" toLane="1" via=":4_0_0" dir="t" state="M"/>
    <connection from="4o" to="1i" fromLane="0" toLane="0" via=":0_9_0" tl="0" linkIndex="9" dir="r" state="O"/>
    <connection from="4o" to="2i" fromLane="1" toLane="1" via=":0_10_0" tl="0" linkIndex="10" dir="s" state="o"/>
    <connection from="4o" to="3i" fromLane="1" toLane="1" via=":0_11_0" tl="0" linkIndex="11" dir="l" state="o"/>

    <connection from=":0_0" to="4i" fromLane="0" toLane="0" dir="r" state="M"/>
    <connection from=":0_1" to="1i" fromLane="0" toLane="1" dir="s" state="M"/>
    <connection from=":0_2" to="2i" fromLane="0" toLane="1" dir="l" state="M"/>
    <connection from=":0_3" to="3i" fromLane="0" toLane="0" dir="r" state="M"/>
    <connection from=":0_4" to="4i" fromLane="0" toLane="1" dir="s" state="M"/>
    <connection from=":0_5" to="1i" fromLane="0" toLane="1" dir="l" state="M"/>
    <connection from=":0_6" to="2i" fromLane="0" toLane="0" dir="r" state="M"/>
    <connection from=":0_7" to="3i" fromLane="0" toLane="1" dir="s" state="M"/>
    <connection from=":0_8" to="4i" fromLane="0" toLane="1" dir="l" state="M"/>
    <connection from=":0_9" to="1i" fromLane="0" toLane="0" dir="r" state="M"/>
    <connection from=":0_10" to="2i" fromLane="0" toLane="1" dir="s" state="M"/>
    <connection from=":0_11" to="3i" fromLane="0" toLane="1" dir="l" state="M"/>
    <connection from=":1_0" to="1o" fromLane="0" toLane="1" dir="t" state="M"/>
    <connection from=":2_0" to="2o" fromLane="0" toLane="1" dir="t" state="M"/>
    <connection from=":3_0" to="3o" fromLane="0" toLane="1" dir="t" state="M"/>
    <connection from=":4_0" to="4o" fromLane="0" toLane="1" dir="t" state="M"/>

</net>
