<?xml version="1.0" encoding="UTF-8"?>

<!-- generated on 05/10/21 15:06:57 by Eclipse SUMO netedit Version 1.6.0
<configuration xmlns:xsi="http://www.w3.org/2001/XMLSchema-instance" xsi:noNamespaceSchemaLocation="http://sumo.dlr.de/xsd/netconvertConfiguration.xsd">

    <input>
        <sumo-net-file value="D:\AAAsofeware\anaconda\Lib\site-packages\gym\envs\user_defined\sumo_files\a.net.xml"/>
    </input>

    <output>
        <output-file value="D:\AAAsofeware\anaconda\Lib\site-packages\gym\envs\user_defined\sumo_files\a.net.xml"/>
    </output>

    <processing>
        <geometry.min-radius.fix.railways value="false"/>
        <geometry.max-grade.fix value="false"/>
        <offset.disable-normalization value="true"/>
        <lefthand value="false"/>
    </processing>

    <junctions>
        <no-internal-links value="false"/>
        <no-turnarounds value="true"/>
        <junctions.corner-detail value="5"/>
        <junctions.limit-turn-speed value="5.5"/>
        <rectangular-lane-cut value="false"/>
    </junctions>

    <pedestrian>
        <walkingareas value="false"/>
    </pedestrian>

    <report>
        <aggregate-warnings value="5"/>
    </report>

</configuration>
-->

<net version="1.6" junctionCornerDetail="5" limitTurnSpeed="5.50" xmlns:xsi="http://www.w3.org/2001/XMLSchema-instance" xsi:noNamespaceSchemaLocation="http://sumo.dlr.de/xsd/net_file.xsd">

    <location netOffset="500.00,500.00" convBoundary="-150.00,-419.73,473.37,150.00" origBoundary="-500.00,-500.00,500.00,500.00" projParameter="!"/>

    <edge id=":0_0" function="internal">
        <lane id=":0_0_0" index="0" allow="bicycle" speed="9.44" length="16.52" width="2.00" shape="-12.25,25.00 -13.05,19.42 -15.44,15.44 -19.42,13.05 -21.00,12.82"/>
    </edge>
    <edge id=":0_1" function="internal">
        <lane id=":0_1_0" index="0" allow="bicycle" speed="12.00" length="50.00" width="2.00" shape="-12.25,25.00 -12.25,-25.00"/>
    </edge>
    <edge id=":0_2" function="internal">
        <lane id=":0_2_0" index="0" allow="bicycle" speed="12.00" length="12.94" width="2.00" shape="-12.25,25.00 -10.42,12.19"/>
    </edge>
    <edge id=":0_3" function="internal">
        <lane id=":0_3_0" index="0" disallow="pedestrian bicycle" speed="11.14" length="7.65" width="3.75" shape="-9.38,25.00 -10.25,17.41"/>
    </edge>
    <edge id=":0_4" function="internal">
        <lane id=":0_4_0" index="0" disallow="pedestrian bicycle" speed="12.00" length="50.00" width="3.75" shape="-9.38,25.00 -9.38,-25.00"/>
        <lane id=":0_4_1" index="1" disallow="pedestrian bicycle" speed="12.00" length="50.00" width="3.75" shape="-5.63,25.00 -5.63,-25.00"/>
        <lane id=":0_4_2" index="2" disallow="pedestrian bicycle" speed="12.00" length="50.00" width="3.75" shape="-1.88,25.00 -1.88,-25.00"/>
    </edge>
    <edge id=":0_7" function="internal">
        <lane id=":0_7_0" index="0" disallow="pedestrian bicycle" speed="12.00" length="12.26" width="3.75" shape="-1.88,25.00 -0.20,13.24 0.00,12.92"/>
    </edge>
    <edge id=":0_32" function="internal">
        <lane id=":0_32_0" index="0" allow="bicycle" speed="9.44" length="4.04" width="2.00" shape="-21.00,12.82 -25.00,12.25"/>
    </edge>
    <edge id=":0_33" function="internal">
        <lane id=":0_33_0" index="0" allow="bicycle" speed="12.00" length="47.13" width="2.00" shape="-10.42,12.19 -9.92,8.70 -2.94,-2.94 8.70,-9.92 25.00,-12.25"/>
    </edge>
    <edge id=":0_34" function="internal">
        <lane id=":0_34_0" index="0" disallow="pedestrian bicycle" speed="11.14" length="20.64" width="3.75" shape="-10.25,17.41 -10.35,16.52 -13.28,10.47 -18.16,6.84 -25.00,5.63"/>
    </edge>
    <edge id=":0_35" function="internal">
        <lane id=":0_35_0" index="0" disallow="pedestrian bicycle" speed="12.00" length="31.09" width="3.75" shape="0.00,12.92 4.84,4.84 13.24,-0.20 25.00,-1.88"/>
    </edge>
    <edge id=":0_8" function="internal">
        <lane id=":0_8_0" index="0" allow="bicycle" speed="9.44" length="16.52" width="2.00" shape="25.00,12.25 19.42,13.05 15.44,15.44 13.05,19.42 12.82,21.00"/>
    </edge>
    <edge id=":0_9" function="internal">
        <lane id=":0_9_0" index="0" allow="bicycle" speed="12.00" length="50.00" width="2.00" shape="25.00,12.25 -25.00,12.25"/>
    </edge>
    <edge id=":0_10" function="internal">
        <lane id=":0_10_0" index="0" allow="bicycle" speed="12.00" length="33.46" width="2.00" shape="25.00,12.25 8.70,9.92 -2.94,2.94 -4.70,0.00"/>
    </edge>
    <edge id=":0_11" function="internal">
        <lane id=":0_11_0" index="0" disallow="pedestrian bicycle" speed="10.54" length="6.19" width="3.75" shape="25.00,9.38 18.88,10.25"/>
    </edge>
    <edge id=":0_12" function="internal">
        <lane id=":0_12_0" index="0" disallow="pedestrian bicycle" speed="12.00" length="50.05" width="3.75" shape="25.00,5.63 -25.00,9.38"/>
        <lane id=":0_12_1" index="1" disallow="pedestrian bicycle" speed="12.00" length="50.05" width="3.75" shape="25.00,5.63 -25.00,5.63"/>
        <lane id=":0_12_2" index="2" disallow="pedestrian bicycle" speed="12.00" length="50.05" width="3.75" shape="25.00,1.88 -25.00,1.88"/>
    </edge>
    <edge id=":0_15" function="internal">
        <lane id=":0_15_0" index="0" disallow="pedestrian bicycle" speed="12.00" length="12.26" width="3.75" shape="25.00,1.88 13.24,0.20 12.92,-0.00"/>
    </edge>
    <edge id=":0_36" function="internal">
        <lane id=":0_36_0" index="0" allow="bicycle" speed="9.44" length="4.04" width="2.00" shape="12.82,21.00 12.25,25.00"/>
    </edge>
    <edge id=":0_37" function="internal">
        <lane id=":0_37_0" index="0" allow="bicycle" speed="12.00" length="26.61" width="2.00" shape="-4.70,0.00 -9.92,-8.70 -12.25,-25.00"/>
    </edge>
    <edge id=":0_38" function="internal">
        <lane id=":0_38_0" index="0" disallow="pedestrian bicycle" speed="10.54" length="19.01" width="3.75" shape="18.88,10.25 18.16,10.35 13.28,13.28 10.35,18.16 9.38,25.00"/>
    </edge>
    <edge id=":0_39" function="internal">
        <lane id=":0_39_0" index="0" disallow="pedestrian bicycle" speed="12.00" length="31.09" width="3.75" shape="12.92,-0.00 4.84,-4.84 -0.20,-13.24 -1.88,-25.00"/>
    </edge>
    <edge id=":0_16" function="internal">
        <lane id=":0_16_0" index="0" allow="bicycle" speed="9.44" length="16.52" width="2.00" shape="12.25,-25.00 13.05,-19.42 15.44,-15.44 19.42,-13.05 21.00,-12.82"/>
    </edge>
    <edge id=":0_17" function="internal">
        <lane id=":0_17_0" index="0" allow="bicycle" speed="12.00" length="50.00" width="2.00" shape="12.25,-25.00 12.25,25.00"/>
    </edge>
    <edge id=":0_18" function="internal">
        <lane id=":0_18_0" index="0" allow="bicycle" speed="12.00" length="12.94" width="2.00" shape="12.25,-25.00 10.42,-12.19"/>
    </edge>
    <edge id=":0_19" function="internal">
        <lane id=":0_19_0" index="0" disallow="pedestrian bicycle" speed="11.14" length="7.65" width="3.75" shape="9.38,-25.00 10.25,-17.41"/>
    </edge>
    <edge id=":0_20" function="internal">
        <lane id=":0_20_0" index="0" disallow="pedestrian bicycle" speed="12.00" length="50.00" width="3.75" shape="9.38,-25.00 9.38,25.00"/>
        <lane id=":0_20_1" index="1" disallow="pedestrian bicycle" speed="12.00" length="50.00" width="3.75" shape="5.63,-25.00 5.63,25.00"/>
        <lane id=":0_20_2" index="2" disallow="pedestrian bicycle" speed="12.00" length="50.00" width="3.75" shape="1.88,-25.00 1.88,25.00"/>
    </edge>
    <edge id=":0_23" function="internal">
        <lane id=":0_23_0" index="0" disallow="pedestrian bicycle" speed="12.00" length="12.26" width="3.75" shape="1.88,-25.00 0.20,-13.24 -0.00,-12.92"/>
    </edge>
    <edge id=":0_40" function="internal">
        <lane id=":0_40_0" index="0" allow="bicycle" speed="9.44" length="4.04" width="2.00" shape="21.00,-12.82 25.00,-12.25"/>
    </edge>
    <edge id=":0_41" function="internal">
        <lane id=":0_41_0" index="0" allow="bicycle" speed="12.00" length="47.13" width="2.00" shape="10.42,-12.19 9.92,-8.70 2.94,2.94 -8.70,9.92 -25.00,12.25"/>
    </edge>
    <edge id=":0_42" function="internal">
        <lane id=":0_42_0" index="0" disallow="pedestrian bicycle" speed="11.14" length="20.64" width="3.75" shape="10.25,-17.41 10.35,-16.52 13.28,-10.47 18.16,-6.84 25.00,-5.63"/>
    </edge>
    <edge id=":0_43" function="internal">
        <lane id=":0_43_0" index="0" disallow="pedestrian bicycle" speed="12.00" length="31.09" width="3.75" shape="-0.00,-12.92 -4.84,-4.84 -13.24,0.20 -25.00,1.88"/>
    </edge>
    <edge id=":0_24" function="internal">
        <lane id=":0_24_0" index="0" allow="bicycle" speed="9.44" length="16.52" width="2.00" shape="-25.00,-12.25 -19.42,-13.05 -15.44,-15.44 -13.05,-19.42 -12.82,-21.00"/>
    </edge>
    <edge id=":0_25" function="internal">
        <lane id=":0_25_0" index="0" allow="bicycle" speed="12.00" length="50.00" width="2.00" shape="-25.00,-12.25 25.00,-12.25"/>
    </edge>
    <edge id=":0_26" function="internal">
        <lane id=":0_26_0" index="0" allow="bicycle" speed="12.00" length="33.46" width="2.00" shape="-25.00,-12.25 -8.70,-9.92 2.94,-2.94 4.70,-0.00"/>
    </edge>
    <edge id=":0_27" function="internal">
        <lane id=":0_27_0" index="0" disallow="pedestrian bicycle" speed="10.54" length="6.19" width="3.75" shape="-25.00,-9.38 -18.88,-10.25"/>
    </edge>
    <edge id=":0_28" function="internal">
        <lane id=":0_28_0" index="0" disallow="pedestrian bicycle" speed="12.00" length="50.05" width="3.75" shape="-25.00,-5.63 25.00,-9.38"/>
        <lane id=":0_28_1" index="1" disallow="pedestrian bicycle" speed="12.00" length="50.05" width="3.75" shape="-25.00,-5.63 25.00,-5.63"/>
        <lane id=":0_28_2" index="2" disallow="pedestrian bicycle" speed="12.00" length="50.05" width="3.75" shape="-25.00,-1.88 25.00,-1.88"/>
    </edge>
    <edge id=":0_31" function="internal">
        <lane id=":0_31_0" index="0" disallow="pedestrian bicycle" speed="12.00" length="12.26" width="3.75" shape="-25.00,-1.88 -13.24,-0.20 -12.92,0.00"/>
    </edge>
    <edge id=":0_44" function="internal">
        <lane id=":0_44_0" index="0" allow="bicycle" speed="9.44" length="4.04" width="2.00" shape="-12.82,-21.00 -12.25,-25.00"/>
    </edge>
    <edge id=":0_45" function="internal">
        <lane id=":0_45_0" index="0" allow="bicycle" speed="12.00" length="26.61" width="2.00" shape="4.70,-0.00 9.92,8.70 12.25,25.00"/>
    </edge>
    <edge id=":0_46" function="internal">
        <lane id=":0_46_0" index="0" disallow="pedestrian bicycle" speed="10.54" length="19.01" width="3.75" shape="-18.88,-10.25 -18.16,-10.35 -13.28,-13.28 -10.35,-18.16 -9.38,-25.00"/>
    </edge>
    <edge id=":0_47" function="internal">
        <lane id=":0_47_0" index="0" disallow="pedestrian bicycle" speed="12.00" length="31.09" width="3.75" shape="-12.92,0.00 -4.84,4.84 0.20,13.24 1.88,25.00"/>
    </edge>
    <edge id=":0_c0" function="crossing" crossingEdges="3i 3o">
        <lane id=":0_c0_0" index="0" allow="pedestrian" speed="1.00" length="26.50" width="4.00" shape="13.25,23.00 -13.25,23.00"/>
    </edge>
    <edge id=":0_c1" function="crossing" crossingEdges="2i 2o">
        <lane id=":0_c1_0" index="0" allow="pedestrian" speed="1.00" length="26.50" width="4.00" shape="23.00,-13.25 23.00,13.25"/>
    </edge>
    <edge id=":0_c2" function="crossing" crossingEdges="1i 1o">
        <lane id=":0_c2_0" index="0" allow="pedestrian" speed="1.00" length="26.50" width="4.00" shape="-13.25,-23.00 13.25,-23.00"/>
    </edge>
    <edge id=":0_c3" function="crossing" crossingEdges="4i 4o">
        <lane id=":0_c3_0" index="0" allow="pedestrian" speed="1.00" length="26.50" width="4.00" shape="-23.00,13.25 -23.00,-13.25"/>
    </edge>
    <edge id=":0_w0" function="walkingarea">
        <lane id=":0_w0_0" index="0" allow="pedestrian" speed="1.00" length="10.46" width="4.00" shape="-25.00,13.25 -25.00,15.25 -15.25,25.00 -13.25,25.00 -13.58,21.41 -14.56,18.47 -16.19,16.19 -18.47,14.56 -21.41,13.58"/>
    </edge>
    <edge id=":0_w1" function="walkingarea">
        <lane id=":0_w1_0" index="0" allow="pedestrian" speed="1.00" length="10.46" width="4.00" shape="13.25,25.00 15.25,25.00 25.00,15.25 25.00,13.25 21.41,13.58 18.47,14.56 16.19,16.19 14.56,18.47 13.58,21.41"/>
    </edge>
    <edge id=":0_w2" function="walkingarea">
        <lane id=":0_w2_0" index="0" allow="pedestrian" speed="1.00" length="10.46" width="4.00" shape="25.00,-13.25 25.00,-15.25 15.25,-25.00 13.25,-25.00 13.58,-21.41 14.56,-18.47 16.19,-16.19 18.47,-14.56 21.41,-13.58"/>
    </edge>
    <edge id=":0_w3" function="walkingarea">
        <lane id=":0_w3_0" index="0" allow="pedestrian" speed="1.00" length="10.46" width="4.00" shape="-13.25,-25.00 -15.25,-25.00 -25.00,-15.25 -25.00,-13.25 -21.41,-13.58 -18.47,-14.56 -16.19,-16.19 -14.56,-18.47 -13.58,-21.41"/>
    </edge>
    <edge id=":1_w0" function="walkingarea">
        <lane id=":1_w0_0" index="0" allow="pedestrian" speed="1.00" length="28.50" width="2.00" shape="13.25,-150.00 15.25,-150.00 -15.25,-150.00 -13.25,-150.00"/>
    </edge>
    <edge id=":2_w0" function="walkingarea">
        <lane id=":2_w0_0" index="0" allow="pedestrian" speed="1.00" length="28.50" width="2.00" shape="150.00,13.25 150.00,15.25 150.00,-15.25 150.00,-13.25"/>
    </edge>
    <edge id=":3_w0" function="walkingarea">
        <lane id=":3_w0_0" index="0" allow="pedestrian" speed="1.00" length="28.50" width="2.00" shape="-13.25,150.00 -15.25,150.00 15.25,150.00 13.25,150.00"/>
    </edge>
    <edge id=":4_w0" function="walkingarea">
        <lane id=":4_w0_0" index="0" allow="pedestrian" speed="1.00" length="28.50" width="2.00" shape="-150.00,-13.25 -150.00,-15.25 -150.00,15.25 -150.00,13.25"/>
    </edge>
    <edge id=":a1_0" function="internal">
        <lane id=":a1_0_0" index="0" disallow="pedestrian" speed="3.90" length="2.57" shape="260.97,-417.70 261.07,-418.39 261.36,-418.89 261.86,-419.19 262.55,-419.30"/>
    </edge>
    <edge id=":a1_w0" function="walkingarea">
        <lane id=":a1_w0_0" index="0" allow="pedestrian" speed="1.00" length="5.92" width="2.00" shape="262.54,-420.90 262.52,-422.90 257.37,-417.69 259.37,-417.69 259.46,-418.67 259.72,-419.46 260.16,-420.08 260.78,-420.53 261.57,-420.80"/>
    </edge>
    <edge id=":a2_0" function="internal">
        <lane id=":a2_0_0" index="0" disallow="pedestrian" speed="3.90" length="2.58" shape="472.47,-421.33 473.18,-421.24 473.68,-420.94 473.98,-420.44 474.09,-419.74"/>
    </edge>
    <edge id=":a2_w0" function="walkingarea">
        <lane id=":a2_w0_0" index="0" allow="pedestrian" speed="1.00" length="5.95" width="2.00" shape="475.69,-419.75 477.69,-419.77 472.44,-424.93 472.46,-422.93 473.44,-422.85 474.24,-422.59 474.87,-422.15 475.32,-421.53 475.59,-420.73"/>
    </edge>
    <edge id=":a3_0" function="internal">
        <lane id=":a3_0_0" index="0" disallow="pedestrian" speed="3.90" length="2.58" shape="474.97,-305.00 474.88,-304.30 474.58,-303.80 474.08,-303.50 473.38,-303.39"/>
    </edge>
    <edge id=":a3_w0" function="walkingarea">
        <lane id=":a3_w0_0" index="0" allow="pedestrian" speed="1.00" length="5.94" width="2.00" shape="473.40,-301.79 473.41,-299.79 478.57,-305.03 476.57,-305.01 476.49,-304.04 476.23,-303.23 475.79,-302.61 475.17,-302.16 474.37,-301.89"/>
    </edge>
    <edge id=":a4_0" function="internal">
        <lane id=":a4_0_0" index="0" disallow="pedestrian" speed="3.90" length="2.59" shape="262.79,-301.67 262.09,-301.76 261.58,-302.06 261.28,-302.56 261.18,-303.27"/>
    </edge>
    <edge id=":a4_w0" function="walkingarea">
        <lane id=":a4_w0_0" index="0" allow="pedestrian" speed="1.00" length="5.96" width="2.00" shape="259.58,-303.26 257.58,-303.26 262.82,-298.07 262.81,-300.07 261.82,-300.15 261.02,-300.41 260.39,-300.86 259.94,-301.48 259.67,-302.28"/>
    </edge>

    <edge id="1i" from="0" to="1" priority="1" length="300.00">
        <lane id="1i_0" index="0" allow="pedestrian" speed="12.00" length="300.00" width="2.00" shape="-14.25,-25.00 -14.25,-150.00"/>
        <lane id="1i_1" index="1" allow="bicycle" speed="12.00" length="300.00" width="2.00" shape="-12.25,-25.00 -12.25,-150.00"/>
        <lane id="1i_2" index="2" disallow="pedestrian bicycle" speed="12.00" length="300.00" width="3.75" shape="-9.38,-25.00 -9.38,-150.00"/>
        <lane id="1i_3" index="3" disallow="pedestrian bicycle" speed="12.00" length="300.00" width="3.75" shape="-5.63,-25.00 -5.63,-150.00"/>
        <lane id="1i_4" index="4" disallow="pedestrian bicycle" speed="12.00" length="300.00" width="3.75" shape="-1.88,-25.00 -1.88,-150.00"/>
    </edge>
    <edge id="1o" from="1" to="0" priority="1" length="300.00">
        <lane id="1o_0" index="0" allow="pedestrian" speed="12.00" length="300.00" width="2.00" shape="14.25,-150.00 14.25,-25.00"/>
        <lane id="1o_1" index="1" allow="bicycle" speed="12.00" length="300.00" width="2.00" shape="12.25,-150.00 12.25,-25.00"/>
        <lane id="1o_2" index="2" disallow="pedestrian bicycle" speed="12.00" length="300.00" width="3.75" shape="9.38,-150.00 9.38,-25.00"/>
        <lane id="1o_3" index="3" disallow="pedestrian bicycle" speed="12.00" length="300.00" width="3.75" shape="5.63,-150.00 5.63,-25.00"/>
        <lane id="1o_4" index="4" disallow="pedestrian bicycle" speed="12.00" length="300.00" width="3.75" shape="1.88,-150.00 1.88,-25.00"/>
    </edge>
    <edge id="2i" from="0" to="2" priority="1" length="300.00">
        <lane id="2i_0" index="0" allow="pedestrian" speed="12.00" length="300.00" width="2.00" shape="25.00,-14.25 150.00,-14.25"/>
        <lane id="2i_1" index="1" allow="bicycle" speed="12.00" length="300.00" width="2.00" shape="25.00,-12.25 150.00,-12.25"/>
        <lane id="2i_2" index="2" disallow="pedestrian bicycle" speed="12.00" length="300.00" width="3.75" shape="25.00,-9.38 150.00,-9.38"/>
        <lane id="2i_3" index="3" disallow="pedestrian bicycle" speed="12.00" length="300.00" width="3.75" shape="25.00,-5.63 150.00,-5.63"/>
        <lane id="2i_4" index="4" disallow="pedestrian bicycle" speed="12.00" length="300.00" width="3.75" shape="25.00,-1.88 150.00,-1.88"/>
    </edge>
    <edge id="2o" from="2" to="0" priority="1" length="300.00">
        <lane id="2o_0" index="0" allow="pedestrian" speed="12.00" length="300.00" width="2.00" shape="150.00,14.25 25.00,14.25"/>
        <lane id="2o_1" index="1" allow="bicycle" speed="12.00" length="300.00" width="2.00" shape="150.00,12.25 25.00,12.25"/>
        <lane id="2o_2" index="2" disallow="pedestrian bicycle" speed="12.00" length="300.00" width="3.75" shape="150.00,9.38 25.00,9.38"/>
        <lane id="2o_3" index="3" disallow="pedestrian bicycle" speed="12.00" length="300.00" width="3.75" shape="150.00,5.63 25.00,5.63"/>
        <lane id="2o_4" index="4" disallow="pedestrian bicycle" speed="12.00" length="300.00" width="3.75" shape="150.00,1.88 25.00,1.88"/>
    </edge>
    <edge id="3i" from="0" to="3" priority="1" length="300.00">
        <lane id="3i_0" index="0" allow="pedestrian" speed="12.00" length="300.00" width="2.00" shape="14.25,25.00 14.25,150.00"/>
        <lane id="3i_1" index="1" allow="bicycle" speed="12.00" length="300.00" width="2.00" shape="12.25,25.00 12.25,150.00"/>
        <lane id="3i_2" index="2" disallow="pedestrian bicycle" speed="12.00" length="300.00" width="3.75" shape="9.38,25.00 9.38,150.00"/>
        <lane id="3i_3" index="3" disallow="pedestrian bicycle" speed="12.00" length="300.00" width="3.75" shape="5.63,25.00 5.63,150.00"/>
        <lane id="3i_4" index="4" disallow="pedestrian bicycle" speed="12.00" length="300.00" width="3.75" shape="1.88,25.00 1.88,150.00"/>
    </edge>
    <edge id="3o" from="3" to="0" priority="1" length="300.00">
        <lane id="3o_0" index="0" allow="pedestrian" speed="12.00" length="300.00" width="2.00" shape="-14.25,150.00 -14.25,25.00"/>
        <lane id="3o_1" index="1" allow="bicycle" speed="12.00" length="300.00" width="2.00" shape="-12.25,150.00 -12.25,25.00"/>
        <lane id="3o_2" index="2" disallow="pedestrian bicycle" speed="12.00" length="300.00" width="3.75" shape="-9.38,150.00 -9.38,25.00"/>
        <lane id="3o_3" index="3" disallow="pedestrian bicycle" speed="12.00" length="300.00" width="3.75" shape="-5.63,150.00 -5.63,25.00"/>
        <lane id="3o_4" index="4" disallow="pedestrian bicycle" speed="12.00" length="300.00" width="3.75" shape="-1.88,150.00 -1.88,25.00"/>
    </edge>
    <edge id="4i" from="0" to="4" priority="1" length="300.00">
        <lane id="4i_0" index="0" allow="pedestrian" speed="12.00" length="300.00" width="2.00" shape="-25.00,14.25 -150.00,14.25"/>
        <lane id="4i_1" index="1" allow="bicycle" speed="12.00" length="300.00" width="2.00" shape="-25.00,12.25 -150.00,12.25"/>
        <lane id="4i_2" index="2" disallow="pedestrian bicycle" speed="12.00" length="300.00" width="3.75" shape="-25.00,9.38 -150.00,9.38"/>
        <lane id="4i_3" index="3" disallow="pedestrian bicycle" speed="12.00" length="300.00" width="3.75" shape="-25.00,5.63 -150.00,5.63"/>
        <lane id="4i_4" index="4" disallow="pedestrian bicycle" speed="12.00" length="300.00" width="3.75" shape="-25.00,1.88 -150.00,1.88"/>
    </edge>
    <edge id="4o" from="4" to="0" priority="1" length="300.00">
        <lane id="4o_0" index="0" allow="pedestrian" speed="12.00" length="300.00" width="2.00" shape="-150.00,-14.25 -25.00,-14.25"/>
        <lane id="4o_1" index="1" allow="bicycle" speed="12.00" length="300.00" width="2.00" shape="-150.00,-12.25 -25.00,-12.25"/>
        <lane id="4o_2" index="2" disallow="pedestrian bicycle" speed="12.00" length="300.00" width="3.75" shape="-150.00,-9.38 -25.00,-9.38"/>
        <lane id="4o_3" index="3" disallow="pedestrian bicycle" speed="12.00" length="300.00" width="3.75" shape="-150.00,-5.63 -25.00,-5.63"/>
        <lane id="4o_4" index="4" disallow="pedestrian bicycle" speed="12.00" length="300.00" width="3.75" shape="-150.00,-1.88 -25.00,-1.88"/>
    </edge>
    <edge id="a1toa2" from="a1" to="a2" priority="-1">
        <lane id="a1toa2_0" index="0" allow="pedestrian" speed="13.89" length="209.93" width="2.00" shape="262.53,-421.90 472.45,-423.93"/>
        <lane id="a1toa2_1" index="1" disallow="pedestrian" speed="13.89" length="209.93" shape="262.55,-419.30 472.47,-421.33"/>
    </edge>
    <edge id="a2toa3" from="a2" to="a3" priority="-1">
        <lane id="a2toa3_0" index="0" allow="pedestrian" speed="13.89" length="114.74" width="2.00" shape="476.69,-419.76 477.57,-305.02"/>
        <lane id="a2toa3_1" index="1" disallow="pedestrian" speed="13.89" length="114.74" shape="474.09,-419.74 474.97,-305.00"/>
    </edge>
    <edge id="a3toa4" from="a3" to="a4" priority="-1">
        <lane id="a3toa4_0" index="0" allow="pedestrian" speed="13.89" length="210.60" width="2.00" shape="473.40,-300.79 262.81,-299.07"/>
        <lane id="a3toa4_1" index="1" disallow="pedestrian" speed="13.89" length="210.60" shape="473.38,-303.39 262.79,-301.67"/>
    </edge>
    <edge id="a4toa1" from="a4" to="a1" priority="-1">
        <lane id="a4toa1_0" index="0" allow="pedestrian" speed="13.89" length="114.43" width="2.00" shape="258.58,-303.26 258.37,-417.69"/>
        <lane id="a4toa1_1" index="1" disallow="pedestrian" speed="13.89" length="114.43" shape="261.18,-303.27 260.97,-417.70"/>
    </edge>

    <tlLogic id="0" type="static" programID="0" offset="0">
        <phase duration="37" state="gGggGGGgrrrrrrrrgGggGGGgrrrrrrrrrGrG"/>
        <phase duration="15" state="gGggGGGgrrrrrrrrgGggGGGgrrrrrrrrrrrr"/>
        <phase duration="3"  state="yyyyyyyyrrrrrrrryyyyyyyyrrrrrrrrrrrr"/>
        <phase duration="37" state="rrrrrrrrgGggGGGgrrrrrrrrgGggGGGgGrGr"/>
        <phase duration="15" state="rrrrrrrrgGggGGGgrrrrrrrrgGggGGGgrrrr"/>
        <phase duration="3"  state="rrrrrrrryyyyyyyyrrrrrrrryyyyyyyyrrrr"/>
    </tlLogic>

    <junction id="0" type="traffic_light" x="0.00" y="0.00" incLanes="3o_0 3o_1 3o_2 3o_3 3o_4 2o_0 2o_1 2o_2 2o_3 2o_4 1o_0 1o_1 1o_2 1o_3 1o_4 4o_0 4o_1 4o_2 4o_3 4o_4 :0_w1_0 :0_w2_0 :0_w3_0 :0_w0_0" intLanes=":0_32_0 :0_1_0 :0_33_0 :0_34_0 :0_4_0 :0_4_1 :0_4_2 :0_35_0 :0_36_0 :0_9_0 :0_37_0 :0_38_0 :0_12_0 :0_12_1 :0_12_2 :0_39_0 :0_40_0 :0_17_0 :0_41_0 :0_42_0 :0_20_0 :0_20_1 :0_20_2 :0_43_0 :0_44_0 :0_25_0 :0_45_0 :0_46_0 :0_28_0 :0_28_1 :0_28_2 :0_47_0 :0_c0_0 :0_c1_0 :0_c2_0 :0_c3_0" shape="-15.25,25.00 15.25,25.00 25.00,15.25 25.00,-15.25 15.25,-25.00 -15.25,-25.00 -25.00,-15.25 -25.00,15.25" customShape="1">
        <request index="0"  response="100100000000000000000000000000000000" foes="100100000000000001000000001000000000" cont="1"/>
        <request index="1"  response="010110001101000000000000010000000000" foes="010111111111100001000111011000001000" cont="0"/>
        <request index="2"  response="001110000100011110111000010001110000" foes="001111110110011111111111011001111000" cont="1"/>
        <request index="3"  response="100100000000000000000000000000000110" foes="100100000000100001000111001000000110" cont="1"/>
        <request index="4"  response="010110001100000000001000010000000000" foes="010111111110100001001111011000000100" cont="0"/>
        <request index="5"  response="010110001100000000001000010000000000" foes="010111111110100001001111011000000100" cont="0"/>
        <request index="6"  response="010110001100000000001000010000000000" foes="010111111110100001001111011000000100" cont="0"/>
        <request index="7"  response="001110000100011110101000010000000000" foes="001111110100011110101111011000000000" cont="1"/>
        <request index="8"  response="001100000000000000100000000000000000" foes="001100000100000000100000000000000000" cont="1"/>
        <request index="9"  response="101000000000011101100000000011111111" foes="101010000100011101100000100011111111" cont="0"/>
        <request index="10" response="011001111111111101100111000011110110" foes="011001111111111101100111100011110110" cont="1"/>
        <request index="11" response="001100000000011100100000011000000000" foes="001110000100011100100000011000000000" cont="1"/>
        <request index="12" response="101000000000111101100000000011111110" foes="101010000100111101100000010011111110" cont="0"/>
        <request index="13" response="101000000000111101100000000011111110" foes="101010000100111101100000010011111110" cont="0"/>
        <request index="14" response="101000000000111101100000000011111110" foes="101010000100111101100000010011111110" cont="0"/>
        <request index="15" response="011001111010111101100000000011110100" foes="011001111010111101100000000011110100" cont="1"/>
        <request index="16" response="011000000000000000000000000000000000" foes="011000000010000000000000000000000100" cont="1"/>
        <request index="17" response="010100000100000000001000110100000000" foes="010101110110000010001111111110000100" cont="0"/>
        <request index="18" response="110010000100011100001000010001111111" foes="110011110110011110001111011001111111" cont="1"/>
        <request index="19" response="011000000000000001100000000000000000" foes="011001110010000001100000000010000100" cont="1"/>
        <request index="20" response="010110000100000000001000110000000000" foes="010111110110000001001111111010000100" cont="0"/>
        <request index="21" response="010110000100000000001000110000000000" foes="010111110110000001001111111010000100" cont="0"/>
        <request index="22" response="010110000100000000001000110000000000" foes="010111110110000001001111111010000100" cont="0"/>
        <request index="23" response="110010000100000000001000010001111010" foes="110011110110000000001111010001111010" cont="1"/>
        <request index="24" response="110000000000000000000000000000000010" foes="110000000000000000000000010000000010" cont="1"/>
        <request index="25" response="101000000000111111110000000001110110" foes="101000001000111111111000010001110110" cont="0"/>
        <request index="26" response="100101110000111101100111101111110110" foes="100101111000111101100111111111110110" cont="1"/>
        <request index="27" response="110000000110000000000000000001110010" foes="110000000110000000001000010001110010" cont="1"/>
        <request index="28" response="101000000000111111100000000011110110" foes="101000000100111111101000010011110110" cont="0"/>
        <request index="29" response="101000000000111111100000000011110110" foes="101000000100111111101000010011110110" cont="0"/>
        <request index="30" response="101000000000111111100000000011110110" foes="101000000100111111101000010011110110" cont="0"/>
        <request index="31" response="100100000000111101000111101011110110" foes="100100000000111101000111101011110110" cont="1"/>
        <request index="32" response="000000000000000000000000000000000000" foes="000010000100011100100000100111111111" cont="0"/>
        <request index="33" response="000000000000000000000000000000000000" foes="000001110010000010011111111110000100" cont="0"/>
        <request index="34" response="000000000000000000000000000000000000" foes="000000001001111111111000010001110010" cont="0"/>
        <request index="35" response="000000000000000000000000000000000000" foes="000011111111100001000111001000001001" cont="0"/>
    </junction>
    <junction id="1" type="dead_end" x="0.00" y="-150.00" incLanes="1i_0 1i_1 1i_2 1i_3 1i_4" intLanes="" shape="0.00,-150.00 -15.25,-150.00 0.00,-150.00"/>
    <junction id="2" type="dead_end" x="150.00" y="0.00" incLanes="2i_0 2i_1 2i_2 2i_3 2i_4" intLanes="" shape="150.00,0.00 150.00,-15.25 150.00,0.00"/>
    <junction id="3" type="dead_end" x="0.00" y="150.00" incLanes="3i_0 3i_1 3i_2 3i_3 3i_4" intLanes="" shape="0.00,150.00 15.25,150.00 0.00,150.00"/>
    <junction id="4" type="dead_end" x="-150.00" y="0.00" incLanes="4i_0 4i_1 4i_2 4i_3 4i_4" intLanes="" shape="-150.00,0.00 -150.00,15.25 -150.00,0.00"/>