<routes>
    <vType id="car_1" length="4.754264" width="1.596668" accel="2.6" decel="4.5" apparentDecel="4.5" emergencyDecel="4.5"
           sigma="0.5" tau="1" minGap="2.5" maxSpeed="8" speedDev="0" color="24,0,255,255" vClass="passenger"
           guiShape="passenger" impatience="0" laneChangeModel="SL2015" carFollowModel="Krauss" latAlignment="center"
           minGapLat="0.1" maxSpeedLat="1"/>
    <vType id="car_2" length="4.173896" width="1.77515" accel="2.6" decel="4.5" apparentDecel="4.5" emergencyDecel="4.5"
           sigma="0.5" tau="1" minGap="2.5" maxSpeed="8" speedDev="0" color="62,62,62,235" vClass="passenger"
           guiShape="passenger" impatience="0" laneChangeModel="SL2015" carFollowModel="Krauss" latAlignment="center"
           minGapLat="0.1" maxSpeedLat="1"/>
    <vType id="car_3" length="4.173896" width="1.77515" accel="2.6" decel="4.5" apparentDecel="4.5" emergencyDecel="4.5"
           sigma="0.5" tau="1" minGap="2.5" maxSpeed="7" speedDev="0" color="255,255,255,186" vClass="passenger"
           guiShape="passenger" impatience="0" laneChangeModel="SL2015" carFollowModel="Krauss" latAlignment="center"
           minGapLat="0.1" maxSpeedLat="1"/>
    <vType id="self_car" length="5" width="1.8" accel="3.5" decel="2.2" sigma="1.0" guiShape="passenger/wagon"
           color="1,0,1" maxSpeed="30"/>


    <flow id="carflow_1.1" type="car_1" beg="0" from="1o" to="4i" departLane="best"
          departPos="random" departSpeed="random" vehsPerHour="800"/>
    <flow id="carflow_2.1" type="car_2" beg="0" from="1o" to="3i" departLane="best"
          departPos="random" departSpeed="random" vehsPerHour="800"/>
    <flow id="carflow_3.1" type="car_3" beg="0" from="1o" to="2i" departLane="best"
          departPos="random" departSpeed="random" vehsPerHour="800"/>

    <flow id="carflow_1.2" type="car_1" beg="0" from="2o" to="1i" departLane="best"
          departPos="random" departSpeed="random" vehsPerHour="600"/>
    <flow id="carflow_2.2" type="car_2" beg="0" from="2o" to="4i" departLane="best"
          departPos="random" departSpeed="random" vehsPerHour="600"/>
    <flow id="carflow_3.2" type="car_3" beg="0" from="2o" to="3i" departLane="best"
          departPos="random" departSpeed="random" vehsPerHour="800"/>

    <flow id="carflow_1.3" type="car_1" beg="0" from="3o" to="2i" departLane="best"
          departPos="random" departSpeed="random" vehsPerHour="800"/>
    <flow id="carflow_2.3" type="car_2" beg="0" from="3o" to="1i" departLane="best"
          departPos="random" departSpeed="random" vehsPerHour="800"/>
    <flow id="carflow_3.3" type="car_3" beg="0" from="3o" to="4i" departLane="best"
          departPos="random" departSpeed="random" vehsPerHour="800"/>

    <flow id="carflow_1.4" type="car_1" beg="0" from="4o" to="3i" departLane="best"
          departPos="random" departSpeed="random" vehsPerHour="600"/>
    <flow id="carflow_2.4" type="car_2" beg="0" from="4o" to="2i" departLane="best"
          departPos="random" departSpeed="random" vehsPerHour="800"/>
    <flow id="carflow_3.4" type="car_3" beg="0" from="4o" to="1i" departLane="best"
          departPos="random" departSpeed="random" vehsPerHour="800"/>
    <route id="ru" edges="2o 3i"/>
    <route id="rd" edges="2o 1i"/>
    <route id="rl" edges="2o 4i"/>

    <route id="lr" edges="4o 2i"/>
    <route id="lu" edges="4o 3i"/>
    <route id="ld" edges="4o 1i"/>

    <route id="dl" edges="1o 4i"/>
    <route id="dr" edges="1o 2i"/>
    <route id="du" edges="1o 3i"/>

    <route id="ud" edges="3o 1i"/>
    <route id="ul" edges="3o 4i"/>
    <route id="ur" edges="3o 2i"/>
    <route id="circle" edges="a1toa2 a2toa3 a3toa4 a4toa1"/>

    <vehicle id="collector" type="car_1" route="circle" depart="0"/>
</routes>