<?xml version="1.0" encoding="UTF-8"?>

<!-- generated on 06/18/19 16:13:49 by Eclipse SUMO netedit Version 1.0.0
<configuration xmlns:xsi="http://www.w3.org/2001/XMLSchema-instance" xsi:noNamespaceSchemaLocation="http://sumo.dlr.de/xsd/netconvertConfiguration.xsd">

    <input>
        <sumo-net-file value="E:\LasVSim%20Program\LasVSim-gui\LasVSim-gui%200.2.1.190615_alpha\Map\Map1_Urban%20Road\grid-map.net.xml"/>
    </input>

    <output>
        <output-file value="E:\LasVSim%20Program\LasVSim-gui\LasVSim-gui%200.2.1.190615_alpha\Map\Map1_Urban%20Road\grid-map.net.xml"/>
    </output>

    <processing>
        <offset.disable-normalization value="true"/>
        <lefthand value="false"/>
    </processing>

    <junctions>
        <no-turnarounds value="true"/>
        <junctions.corner-detail value="0"/>
        <junctions.limit-turn-speed value="-1"/>
        <rectangular-lane-cut value="false"/>
    </junctions>

    <pedestrian>
        <walkingareas value="false"/>
    </pedestrian>

</configuration>
-->

<additional xmlns:xsi="http://www.w3.org/2001/XMLSchema-instance" xsi:noNamespaceSchemaLocation="http://sumo.dlr.de/xsd/additional_file.xsd">
    <rerouter id="rerouter_1" edges="-gneE3" pos="25.56,-33.01">
        <interval begin="0.00" end="100000000.00">
            <destProbReroute id="gneE2" probability="0.40"/>
            <destProbReroute id="-gneE0" probability="0.30"/>
            <destProbReroute id="gneE1" probability="0.30"/>
        </interval>
    </rerouter>
    <rerouter id="rerouter_10" edges="-gneE20" pos="-686.96,-659.67">
        <interval begin="0.00" end="1000000.00">
            <destProbReroute id="-gneE7" probability="0.50"/>
            <destProbReroute id="-gneE6" probability="0.50"/>
        </interval>
    </rerouter>
    <rerouter id="rerouter_11" edges="gneE7" pos="-573.54,-592.80">
        <interval begin="0.00" end="1000000.00">
            <destProbReroute id="gneE6"/>
        </interval>
    </rerouter>
    <rerouter id="rerouter_12" edges="-gneE6" pos="-653.84,-577.49">
        <interval begin="0.00" end="1000000.00">
            <destProbReroute id="-gneE7"/>
        </interval>
    </rerouter>
    <rerouter id="rerouter_13" edges="-gneE22" pos="32.27,-659.55">
        <interval begin="0.00" end="1000000.00">
            <destProbReroute id="gneE8" probability="0.30"/>
            <destProbReroute id="-gneE3" probability="0.40"/>
            <destProbReroute id="gneE7" probability="0.30"/>
        </interval>
    </rerouter>
    <rerouter id="rerouter_14" edges="-gneE8" pos="32.70,-589.98">
        <interval begin="0.00" end="1000000.00">
            <destProbReroute id="gneE7" probability="0.50"/>
            <destProbReroute id="-gneE3" probability="0.50"/>
        </interval>
    </rerouter>
    <rerouter id="rerouter_15" edges="-gneE7" pos="-46.26,-648.46">
        <interval begin="0.00" end="1000000.00">
            <destProbReroute id="-gneE3" probability="0.50"/>
            <destProbReroute id="gneE8" probability="0.50"/>
        </interval>
    </rerouter>
    <rerouter id="rerouter_16" edges="gneE3" pos="-39.01,-582.30">
        <interval begin="0.00" end="1000000.00">
            <destProbReroute id="gneE7" probability="0.50"/>
            <destProbReroute id="gneE8" probability="0.50"/>
        </interval>
    </rerouter>
    <rerouter id="rerouter_17" edges="-gneE23" pos="653.64,-657.00">
        <interval begin="0.00" end="1000000.00">
            <destProbReroute id="-gneE9" probability="0.50"/>
            <destProbReroute id="-gneE8" probability="0.50"/>
        </interval>
    </rerouter>
    <rerouter id="rerouter_18" edges="-gneE24" pos="654.35,-592.68">
        <interval begin="0.00" end="1000000.00">
            <destProbReroute id="-gneE8" probability="0.50"/>
            <destProbReroute id="-gneE9" probability="0.50"/>
        </interval>
    </rerouter>
    <rerouter id="rerouter_19" edges="gneE8" pos="560.91,-652.07">
        <interval begin="0.00" end="1000000.00">
            <destProbReroute id="-gneE9"/>
        </interval>
    </rerouter>
    <rerouter id="rerouter_2" edges="-gneE1" pos="45.41,33.38">
        <interval begin="0.00" end="10000000.00">
            <destProbReroute id="-gneE0" probability="0.40"/>
            <destProbReroute id="gneE2" probability="0.30"/>
            <destProbReroute id="gneE3" probability="0.30"/>
        </interval>
    </rerouter>
    <rerouter id="rerouter_20" edges="gneE9" pos="585.56,-583.99">
        <interval begin="0.00" end="1000000.00">
            <destProbReroute id="-gneE8"/>
        </interval>
    </rerouter>
    <rerouter id="rerouter_21" edges="-gneE19" pos="667.43,36.50">
        <interval begin="0.00" end="1000000.00">
            <destProbReroute id="-gneE1" probability="0.40"/>
            <destProbReroute id="gneE9" probability="0.30"/>
            <destProbReroute id="gneE11" probability="0.30"/>
        </interval>
    </rerouter>
    <rerouter id="rerouter_22" edges="-gneE9" pos="646.12,-28.46">
        <interval begin="0.00" end="1000000.00">
            <destProbReroute id="gneE11" probability="0.50"/>
            <destProbReroute id="-gneE1" probability="0.50"/>
        </interval>
    </rerouter>
    <rerouter id="rerouter_23" edges="gneE1" pos="560.54,-28.81">
        <interval begin="0.00" end="1000000.00">
            <destProbReroute id="gneE9" probability="0.50"/>
            <destProbReroute id="gneE11" probability="0.50"/>
        </interval>
    </rerouter>
    <rerouter id="rerouter_24" edges="-gneE11" pos="589.41,35.81">
        <interval begin="0.00" end="1000000.00">
            <destProbReroute id="-gneE1" probability="0.50"/>
            <destProbReroute id="gneE9" probability="0.50"/>
        </interval>
    </rerouter>
    <rerouter id="rerouter_25" edges="-gneE17" pos="660.61,666.75">
        <interval begin="0.00" end="1000000.00">
            <destProbReroute id="-gneE11" probability="0.50"/>
            <destProbReroute id="-gneE10" probability="0.50"/>
        </interval>
    </rerouter>
    <rerouter id="rerouter_26" edges="gneE11" pos="662.12,576.17">
        <interval begin="0.00" end="1000000.00">
            <destProbReroute id="-gneE10"/>
        </interval>
    </rerouter>
    <rerouter id="rerouter_27" edges="gneE10" pos="566.00,594.29">
        <interval begin="0.00" end="1000000.00">
            <destProbReroute id="-gneE11"/>
        </interval>
    </rerouter>
    <rerouter id="rerouter_28" edges="-gneE16" pos="578.08,661.22">
        <interval begin="0.00" end="1000000.00">
            <destProbReroute id="-gneE10" probability="0.50"/>
            <destProbReroute id="-gneE11" probability="0.50"/>
        </interval>
    </rerouter>
    <rerouter id="rerouter_29" edges="-gneE15" pos="-41.31,661.13">
        <interval begin="0.00" end="1000000.00">
            <destProbReroute id="-gneE2" probability="0.40"/>
            <destProbReroute id="gneE10" probability="0.30"/>
            <destProbReroute id="gneE4" probability="0.30"/>
        </interval>
    </rerouter>
    <rerouter id="rerouter_3" edges="-gneE2" pos="-29.78,39.95">
        <interval begin="0.00" end="1000000000.00">
            <destProbReroute id="-gneE0" probability="0.30"/>
            <destProbReroute id="gneE1" probability="0.30"/>
            <destProbReroute id="gneE3" probability="0.40"/>
        </interval>
    </rerouter>
    <rerouter id="rerouter_30" edges="gneE2" pos="29.84,581.74">
        <interval begin="0.00" end="1000000.00">
            <destProbReroute id="gneE10" probability="0.50"/>
            <destProbReroute id="gneE4" probability="0.50"/>
        </interval>
    </rerouter>
    <rerouter id="rerouter_31" edges="-gneE4" pos="-49.90,591.02">
        <interval begin="0.00" end="1000000.00">
            <destProbReroute id="-gneE2" probability="0.50"/>
            <destProbReroute id="gneE10" probability="0.50"/>
        </interval>
    </rerouter>
    <rerouter id="rerouter_32" edges="-gneE10" pos="42.21,657.01">
        <interval begin="0.00" end="1000000.00">
            <destProbReroute id="-gneE2" probability="0.50"/>
            <destProbReroute id="gneE4" probability="0.50"/>
        </interval>
    </rerouter>
    <rerouter id="rerouter_33" edges="-gneE14" pos="-662.98,595.27">
        <interval begin="0.00" end="1000000.00">
            <destProbReroute id="-gneE4" probability="0.50"/>
            <destProbReroute id="-gneE5" probability="0.50"/>
        </interval>
    </rerouter>
    <rerouter id="rerouter_34" edges="gneE5" pos="-596.48,595.27">
        <interval begin="0.00" end="1000000.00">
            <destProbReroute id="-gneE4"/>
        </interval>
    </rerouter>
    <rerouter id="rerouter_35" edges="gneE4" pos="-590.34,650.32">
        <interval begin="0.00" end="1000000.00">
            <destProbReroute id="-gneE5"/>
        </interval>
    </rerouter>
    <rerouter id="rerouter_36" edges="-gneE13" pos="-654.57,663.55">
        <interval begin="0.00" end="1000000.00">
            <destProbReroute id="-gneE5" probability="0.50"/>
            <destProbReroute id="-gneE4" probability="0.50"/>
        </interval>
    </rerouter>
    <rerouter id="rerouter_37" edges="gneE31" pos="-3600.00,-100.00">
        <interval begin="0.00" end="360000.00">
            <destProbReroute id="gneE34"/>
        </interval>
    </rerouter>
    <rerouter id="rerouter_38" edges="gneE34" pos="-3700.00,-100.00">
        <interval begin="0.00" end="360000.00">
            <destProbReroute id="gneE31"/>
        </interval>
    </rerouter>
    <rerouter id="rerouter_4" edges="gneE6" pos="-572.08,-66.05">
        <interval begin="0.00" end="1000000.00">
            <destProbReroute id="gneE5" probability="0.50"/>
            <destProbReroute id="gneE12" probability="0.50"/>
        </interval>
    </rerouter>
    <rerouter id="rerouter_5" edges="-gneE0" pos="-578.67,35.07">
        <interval begin="0.00" end="1000000.00">
            <destProbReroute id="gneE5" probability="0.50"/>
            <destProbReroute id="-gneE6" probability="0.50"/>
        </interval>
    </rerouter>
    <rerouter id="rerouter_6" edges="-gneE5" pos="-671.16,45.86">
        <interval begin="0.00" end="1000000.00">
            <destProbReroute id="gneE12" probability="0.50"/>
            <destProbReroute id="-gneE6" probability="0.50"/>
        </interval>
    </rerouter>
    <rerouter id="rerouter_7" edges="-gneE18" pos="-668.11,-31.85">
        <interval begin="0.00" end="1000000.00">
            <destProbReroute id="-gneE6" probability="0.30"/>
            <destProbReroute id="gneE12" probability="0.40"/>
            <destProbReroute id="gneE5" probability="0.30"/>
        </interval>
    </rerouter>
    <rerouter id="rerouter_8" edges="-gneE21" pos="-585.72,-664.98">
        <interval begin="0.00" end="1000000.00">
            <destProbReroute id="-gneE7" probability="0.50"/>
            <destProbReroute id="gneE6" probability="0.50"/>
        </interval>
    </rerouter>
    <rerouter id="rerouter_9" edges="gneE12" pos="-57.09,-32.91">
        <interval begin="0.00" end="1000000.00">
            <destProbReroute id="gneE2" probability="0.30"/>
            <destProbReroute id="gneE1" probability="0.40"/>
            <destProbReroute id="gneE3" probability="0.30"/>
        </interval>
    </rerouter>
</additional>
